$ MSC.Nastran input file created on February  03, 2022 at 10:42:02 by
$ Patran 2019
ASSIGN OUTPUT2 = 'BUCKLING_SOL105.op2', UNIT = 12, FORM = FORMATTED
$ Direct Text Input for Nastran System Cell Section
$ Direct Text Input for File Management Section
$ Direct Text Input for Executive Control
$ Buckling Analysis, Database
SOL 105
CEND
$ Direct Text Input for Global Case Control Data
TITLE = MSC.Nastran job created on 15-Mar-21 at 11:28:53
ECHO = SORT
SUBCASE 1
   SUBTITLE=Default
   SPC = 2
   LOAD = 2
   DISPLACEMENT(PRINT,PUNCH,SORT1,REAL)=ALL
   STRESS(PRINT,PUNCH,SORT1,REAL,VONMISES,BILIN)=ALL
SUBCASE 2
   SUBTITLE=Default
   SPC = 2
   METHOD = 1
   VECTOR(PRINT,PUNCH,SORT1,REAL)=ALL
   STATSUB = 1
$ Direct Text Input for this Subcase
BEGIN BULK
CQUAD4 * 1               1               1               2                      
*        24              23              0                                      
CQUAD4 * 2               1               2               3                      
*        25              24              0                                      
CQUAD4 * 3               1               3               4                      
*        26              25              0                                      
CQUAD4 * 4               1               4               5                      
*        27              26              0                                      
CQUAD4 * 5               1               5               6                      
*        28              27              0                                      
CQUAD4 * 6               1               6               7                      
*        29              28              0                                      
CQUAD4 * 7               1               7               8                      
*        30              29              0                                      
CQUAD4 * 8               1               8               9                      
*        31              30              0                                      
CQUAD4 * 9               1               9               10                     
*        32              31              0                                      
CQUAD4 * 10              1               10              11                     
*        33              32              0                                      
CQUAD4 * 11              1               11              12                     
*        34              33              0                                      
CQUAD4 * 12              1               12              13                     
*        35              34              0                                      
CQUAD4 * 13              1               13              14                     
*        36              35              0                                      
CQUAD4 * 14              1               14              15                     
*        37              36              0                                      
CQUAD4 * 15              1               15              16                     
*        38              37              0                                      
CQUAD4 * 16              1               16              17                     
*        39              38              0                                      
CQUAD4 * 17              1               17              18                     
*        40              39              0                                      
CQUAD4 * 18              1               18              19                     
*        41              40              0                                      
CQUAD4 * 19              1               19              20                     
*        42              41              0                                      
CQUAD4 * 20              1               20              21                     
*        43              42              0                                      
$ ... 842 like lines cut
EIGRL  * 1               0.                              6                      
*        0                                                                      
FORCE  * 1               1                              47.9989                 
*       1.               0.              0.                                     
FORCE  * 1               23                             47.9989                 
*       1.               0.              0.                                     
FORCE  * 1               23                             47.9989                 
*       1.               0.              0.                                     
FORCE  * 1               45                             47.9989                 
*       1.               0.              0.                                     
FORCE  * 1               45                             47.9989                 
*       1.               0.              0.                                     
FORCE  * 1               67                             47.9989                 
*       1.               0.              0.                                     
FORCE  * 1               67                             47.9988                 
*       1.               0.              0.                                     
FORCE  * 1               89                             47.9989                 
*       1.               0.              0.                                     
FORCE  * 1               89                             47.9988                 
*       1.               0.              0.                                     
FORCE  * 1               111                            47.9989                 
*       1.               0.              0.                                     
FORCE  * 1               111                            47.9989                 
*       1.               0.              0.                                     
FORCE  * 1               133                            47.9989                 
*       1.               0.              0.                                     
FORCE  * 1               133                            47.9988                 
*       1.               0.              0.                                     
FORCE  * 1               155                            47.9988                 
*       1.               0.              0.                                     
FORCE  * 1               155                            47.9989                 
*       1.               0.              0.                                     
FORCE  * 1               177                            47.9989                 
*       1.               0.              0.                                     
FORCE  * 1               177                            47.9989                 
*       1.               0.              0.                                     
FORCE  * 1               199                            47.9989                 
*       1.               0.              0.                                     
FORCE  * 1               199                            47.9989                 
*       1.               0.              0.                                     
FORCE  * 1               221                            47.9989                 
$ ... 297 like lines cut
GRID   * 1                               0.              0.                     
*        0.                                                                     
GRID   * 2                              .024190478026867 0.                     
*        0.                                                                     
GRID   * 3                              .048380956053734 0.                     
*        0.                                                                     
GRID   * 4                              .072571434080601 0.                     
*        0.                                                                     
GRID   * 5                              .096761912107468 0.                     
*        0.                                                                     
GRID   * 6                              .120952375233173 0.                     
*        0.                                                                     
GRID   * 7                              .145142868161202 0.                     
*        0.                                                                     
GRID   * 8                              .169333338737488 0.                     
*        0.                                                                     
GRID   * 9                              .193523839116097 0.                     
*        0.                                                                     
GRID   * 10                             .217714309692383 0.                     
*        0.                                                                     
GRID   * 11                             .241904780268669 0.                     
*        0.                                                                     
GRID   * 12                             .266095250844955 0.                     
*        0.                                                                     
GRID   * 13                             .290285736322403 0.                     
*        0.                                                                     
GRID   * 14                             .314476221799851 0.                     
*        0.                                                                     
GRID   * 15                             .338666647672653 0.                     
*        0.                                                                     
GRID   * 16                             .362857133150101 0.                     
*        0.                                                                     
GRID   * 17                             .387047618627548 0.                     
*        0.                                                                     
GRID   * 18                             .411238044500351 0.                     
*        0.                                                                     
GRID   * 19                             .435428529977799 0.                     
*        0.                                                                     
GRID   * 20                             .459619015455246 0.                     
*        0.                                                                     
$ ... 928 like lines cut
LOAD   * 2              1.              1.               1                      
*       1.               3              1.               4                      
*       1.               5                                                      
*                                                                               
MAT8   * 1              1.366+11        9.023+9         .256                    
*       4.546+9                                                                 
*                                                       2.035+9                 
*       3.941+9         6.034+7         2.186+8         4.219+7                 
*                       .001                                                    
*                                                                               
MDLPRM   HDF5    0                                                              
PARAM  * POST            1                                                      
PARAM  * PRTMAXIM        YES                                                    
PCOMP  * 1                                              4.219+7                 
*        TSAI                                                                   
*        1              3.125-4          0.              YES                    
*        1              3.125-4         90.              YES                    
*        1              3.125-4          0.              YES                    
*        1              3.125-4         90.              YES                    
*        1              3.125-4         90.              YES                    
*        1              3.125-4          0.              YES                    
*        1              3.125-4         90.              YES                    
*        1              3.125-4          0.              YES                    
SPC1   * 1               123             1                                      
*                                                                               
SPC1   * 3               123             22                                     
*                                                                               
SPC1   * 4               346             23              45                     
*        67              89              111             133                    
*        155             177             199             221                    
*        243             265             287             309                    
*        331             353             375             397                    
*        419             441             463                                    
SPC1   * 5               346             44              66                     
*        88              110             132             154                    
*        176             198             220             242                    
*        264             286             308             330                    
*        352             374             396             418                    
*        440             462             484                                    
SPC1   * 6               356             464             THRU                   
*        483                                                                    
SPC1   * 7               356             2               THRU                   
*        21                                                                     
SPCADD * 2               1               3               4                      
*        5               6               7                                      
ENDDATA
